Circuit: * C:\Users\Mark\Documents\MEGAsync\CEFET\Semestre7\lcdsd\ctrl.sysC(D)SD\spice\Draft2.asc


Date: Sat Dec 03 22:03:07 2022
Total elapsed time: 0.024 seconds.

tnom = 27
temp = 27
method = trap
totiter = 0
traniter = 0
tranpoints = 0
accept = 0
rejected = 0
matrix size = 4
fillins = 0
solver = Normal

